15
Coordinates from ORCA-job BLYP-D3_def2-QZVP
  C   -1.24575379600761      1.82843546683226     -0.86884485027131
  N   -0.39551636506330      1.00071993684719     -1.73695041312869
  H   -2.17957993910283      1.29417929802324     -0.67830222938789
  H   -1.46778140548790      2.76507138708262     -1.38666901367473
  H   -0.76212552107652      2.03958257391374      0.09090243195667
  C   -0.34864128472498     -0.34981054132187     -1.69317497242450
  H   0.23498056390508      1.46259991378127     -2.38109413088266
  O   -1.00909658556597     -1.07139571312356     -0.93743395892421
  H   0.35145160610619     -0.77750562531277     -2.43680500654916
  O   -0.48734523208668      1.75582809558348      2.35784991864503
  H   0.18606967699749      1.63928200659768      3.04424807557064
  H   -0.88368798416871      0.85965602200621      2.23657112369596
  O   -1.56062139606626     -0.76561772897611      1.76823521588946
  H   -1.41540367155972     -0.90004008839109      0.80004543474523
  H   -2.50297836609829     -0.93616440354225      1.91416747474017
