21
Coordinates from ORCA-job BLYP-D3_def2-QZVP
  C   1.63143470314733      1.03073740204757      0.71474009617411
  N   1.71809728648636     -0.02206162635373     -0.30110134116590
  H   1.95207429673945      1.98129149775784      0.28080480212471
  H   2.28854052499063      0.76992025513581      1.54650957641415
  H   0.60673890536341      1.14719885712290      1.08312605892627
  C   1.20986411537548      0.12164692891670     -1.54530351891354
  H   1.97042243707782     -0.95997379541996     -0.00847780612316
  O   0.66152281299005      1.14553635850122     -1.97385235068495
  H   1.34041779531082     -0.78040476463211     -2.17159358958510
  C   -1.50368763548991     -0.39768775938798      2.43258537237139
  N   -1.57548913233111     -0.49284488165659      0.97475904002041
  H   -1.99290443038546      0.52689600349941      2.74610155613514
  H   -0.46390504193629     -0.39518103195359      2.78292350757099
  H   -2.00803583880483     -1.25034758618418      2.89945518928907
  C   -0.98773246597189     -1.50870163012526      0.29685232263304
  H   -1.88439102746875      0.31905571152261      0.43365518762407
  O   -0.36524494287519     -2.44429241037844      0.80555557554546
  H   -1.12667731842206     -1.41035935070033     -0.79948122898760
  O   -1.64821323356707      1.96211722360267     -0.62419845961382
  H   -0.81798678475336      1.80080321981437     -1.13389517868854
  H   -2.26949892547541      2.34367707887107     -1.26223491106622
