18
Coordinates from ORCA-job BLYP-D3_def2-QZVP
  C   0.86061467626418      1.23159869985305     -1.96472653839694
  N   -0.06669910992292      0.52889201980920     -2.85844544212283
  H   1.47333002325144      1.91256344483780     -2.55855731379984
  H   1.50758093186065      0.51372597229562     -1.45352731248711
  H   0.32017685567655      1.80457996486484     -1.20298419402649
  C   -0.81606628565110     -0.53153548122655     -2.46537187306094
  H   -0.18722487853381      0.86477107533843     -3.80588346659863
  O   -0.80025152845618     -1.03105861216931     -1.33910780900930
  H   -1.46049719058909     -0.92525554888097     -3.27566431524604
  C   1.43913027890559     -1.46168841535437      1.77525042829538
  N   0.53225085776165     -0.44589406108353      1.24266826999006
  H   1.42559008822123     -2.32453501437095      1.10550951808771
  H   1.12952308471861     -1.77778688897606      2.77828919609554
  H   2.46187304220636     -1.07386666902505      1.84955703471132
  C   0.36064122204130      0.75281363364630      1.85471994063520
  H   0.01201542427204     -0.64203671297457      0.38613108780203
  O   0.93582273251945      1.12098336896173      2.87833255364761
  H   -0.37593722454596      1.39259522445436      1.32060793548327
