27
Coordinates from ORCA-job BLYP-D3_def2-QZVP
  C   1.63108958584347      0.54641244614751      2.35685813432325
  N   1.40505568581391     -0.75804353771339      1.73510640689907
  H   1.21282000592888      1.36244271363848      1.75187536236597
  H   2.70578901156386      0.70667877676263      2.47075677088129
  H   1.15090958691992      0.56495705493956      3.33782326264821
  C   0.24937851569514     -1.44353727845874      1.88236099234754
  H   2.03203887736628     -1.04647740083808      0.97909200231926
  O   -0.71833816950922     -1.08619014544231      2.56931525710651
  H   0.24728287096780     -2.39380018998490      1.31435952217998
  C   -1.97411049853099      2.57811086551694      1.37055122510764
  N   -1.74352110720874      1.18205716070327      1.00526564917213
  H   -1.16680552917118      2.95196916643192      2.01240717539071
  H   -2.92347005662266      2.68044143593285      1.90710084309959
  H   -2.00871239899392      3.17364926446136      0.45645272014202
  C   -1.46514934642388      0.77573801141857     -0.25130436683849
  H   -1.64030667667809      0.47813547710347      1.74057342671280
  O   -1.38790833340543      1.49497269490010     -1.25862002176931
  H   -1.29516189052869     -0.31633319421626     -0.30126431143995
  C   0.77084726432426     -1.21100699640744     -3.40330755782538
  N   0.77299463920359     -0.11612728989486     -2.43408725777987
  H   -0.00757046664736     -1.95048057938598     -3.17283329754156
  H   1.74234530508425     -1.70827607763587     -3.37412199702295
  H   0.59253240329688     -0.81309130448822     -4.40638672668146
  C   1.56976425814481     -0.09823624401680     -1.34378380848796
  H   0.00432921037283      0.56082363664251     -2.42945855730015
  O   2.41540709341075     -0.95033706353219     -1.03498458713856
  H   1.38409945978352      0.79617359741587     -0.72002326087031
